Version 4
SHEET 1 896 804
WIRE 224 -96 -48 -96
WIRE 352 -96 224 -96
WIRE 656 -96 352 -96
WIRE -48 0 -48 -96
WIRE 656 96 656 -96
WIRE 224 112 224 -96
WIRE -272 160 -416 160
WIRE -144 160 -192 160
WIRE -48 160 -48 80
WIRE -48 160 -80 160
WIRE 160 160 -48 160
WIRE -416 192 -416 160
WIRE 352 256 352 -96
WIRE 224 304 224 208
WIRE 288 304 224 304
WIRE -48 320 -48 160
WIRE 224 416 224 304
WIRE 256 416 224 416
WIRE 352 416 352 352
WIRE 352 416 336 416
WIRE 416 416 352 416
WIRE 528 416 480 416
WIRE 688 416 656 416
WIRE 352 464 352 416
WIRE 528 464 528 416
WIRE -416 560 -416 272
WIRE -48 592 -48 400
WIRE 352 592 352 544
WIRE 528 592 528 544
WIRE 688 784 688 496
FLAG -48 592 0
FLAG 352 592 0
FLAG 528 592 0
FLAG 688 784 0
FLAG 656 176 0
FLAG -288 224 0
FLAG -416 560 0
SYMBOL npn 160 112 R0
SYMATTR InstName q1
SYMATTR Value BC337-25
SYMBOL npn 288 256 R0
SYMATTR InstName q2
SYMATTR Value BC547B
SYMBOL res -64 -16 R0
SYMATTR InstName R1
SYMATTR Value 100k
SYMBOL res -64 304 R0
SYMATTR InstName R2
SYMATTR Value 300k
SYMBOL res -176 144 R90
WINDOW 0 0 56 VBottom 2
WINDOW 3 32 56 VTop 2
SYMATTR InstName R3
SYMATTR Value 10k
SYMBOL res 368 560 R180
WINDOW 0 41 56 Left 2
WINDOW 3 40 28 Left 2
SYMATTR InstName R5
SYMATTR Value 5k
SYMBOL res 544 560 R180
WINDOW 0 41 56 Left 2
WINDOW 3 40 28 Left 2
SYMATTR InstName R6
SYMATTR Value 1k
SYMBOL cap 480 400 R90
WINDOW 0 0 32 VBottom 2
WINDOW 3 32 32 VTop 2
SYMATTR InstName C1
SYMATTR Value 4.7µ
SYMBOL cap -80 144 R90
WINDOW 0 0 32 VBottom 2
WINDOW 3 32 32 VTop 2
SYMATTR InstName C2
SYMATTR Value 1µ
SYMBOL voltage 688 400 R0
WINDOW 123 24 124 Left 2
WINDOW 39 0 0 Left 2
SYMATTR Value2 AC 1
SYMATTR InstName V1
SYMATTR Value SINE(0 1 1000)
SYMBOL voltage 656 80 R0
WINDOW 123 0 0 Left 2
WINDOW 39 0 0 Left 2
SYMATTR InstName V2
SYMATTR Value 15
SYMBOL res 352 400 R90
WINDOW 0 0 56 VBottom 2
WINDOW 3 32 56 VTop 2
SYMATTR InstName R7
SYMATTR Value 10k
SYMBOL res 672 400 R90
WINDOW 0 0 56 VBottom 2
WINDOW 3 32 56 VTop 2
SYMATTR InstName R4
SYMATTR Value 100
SYMBOL voltage -416 176 R0
WINDOW 123 24 124 Left 2
WINDOW 39 0 0 Left 2
SYMATTR Value2 AC 1
SYMATTR InstName V3
SYMATTR Value SINE(0 1 1000)
TEXT -728 80 Left 2 !;tran 0 0.005 .0001
TEXT -736 40 Left 2 !.ac dec 1000 1 10Meg
